ckt5_Power_seq_kVA.txt

SYMMETRICAL COMPONENT POWERS BY CIRCUIT ELEMENT (first 3 phases)                                     Excess Power

Element                                     Term    P1(kW)   Q1(kvar)       P2         Q2      P0      Q0       P_Norm      Q_Norm     P_Emerg    Q_Emerg

"Vsource.SOURCE"                             1   -14395.5    -6421.8        0.0        0.0     0.0    -0.0
"Vsource.SOURCE"                             2        0.0        0.0        0.0        0.0     0.0     0.0
"Line.MDV201_CONNECTOR"                      1    14246.2     4355.8       -0.1       -1.5    -0.1    -1.2     6462.9     1974.8     2571.4      785.7
"Line.MDV201_CONNECTOR"                      2   -14246.2    -4355.8        0.1        1.5     0.1     1.2
"Line.MDV201_HN_1_275_A94744"                1        0.0        0.0        0.0        0.0     0.0     0.0        0.0        0.0        0.0        0.0
"Line.MDV201_HN_1_275_A94744"                2        0.0        0.0        0.0        0.0     0.0     0.0
"Line.MDV201_HN_2_466_C62235"                1        0.0        0.0        0.0        0.0     0.0     0.0        0.0        0.0        0.0        0.0
"Line.MDV201_HN_2_466_C62235"                2        0.0        0.0        0.0        0.0     0.0     0.0
"Line.MDV201_DA_8_780_A1144234"              1        0.0        0.0        0.0        0.0     0.0     0.0        0.0        0.0        0.0        0.0
"Line.MDV201_DA_8_780_A1144234"              2        0.0        0.0        0.0        0.0     0.0     0.0
"Line.MDV201_1160486ELB-1_SW"                1        0.0        0.0        0.0        0.0     0.0     0.0        0.0        0.0        0.0        0.0
"Line.MDV201_1160486ELB-1_SW"                2        0.0        0.0        0.0        0.0     0.0     0.0
"Line.MDV201_1160486ELB"                     1        0.0        0.0        0.0        0.0     0.0     0.0        0.0        0.0        0.0        0.0
"Line.MDV201_1160486ELB"                     2        0.0        0.0        0.0        0.0     0.0     0.0
"Line.MDV201_HN_2P009_B1160473"              1        0.0        0.0        0.0        0.0     0.0     0.0        0.0        0.0        0.0        0.0
"Line.MDV201_HN_2P009_B1160473"              2        0.0        0.0        0.0        0.0     0.0     0.0
"Line.MDV201_HN_2_088_ABC8164"               1     3329.5      934.4       -0.8       -0.5     3.0    -1.9        0.0        0.0        0.0        0.0
"Line.MDV201_HN_2_088_ABC8164"               2    -3327.4     -931.3        0.9        0.6    -2.8     2.3
"Line.MDV201_HN_2_319_B39610"                1        0.0        0.0        0.0        0.0     0.0     0.0        0.0        0.0        0.0        0.0
"Line.MDV201_HN_2_319_B39610"                2        0.0        0.0        0.0        0.0     0.0     0.0
"Line.MDV201_HN_2_417_A842"                  1        0.0        0.0        0.0        0.0     0.0     0.0        0.0        0.0        0.0        0.0
"Line.MDV201_HN_2_417_A842"                  2        0.0        0.0        0.0        0.0     0.0     0.0
"Line.MDV201_HN_2_941_B39760"                1        0.0        0.0        0.0        0.0     0.0     0.0        0.0        0.0        0.0        0.0
"Line.MDV201_HN_2_941_B39760"                2        0.0        0.0        0.0        0.0     0.0     0.0
"Line.MDV201_1160480ELB-1_SW"                1        0.0        0.0        0.0        0.0     0.0     0.0        0.0        0.0        0.0        0.0
"Line.MDV201_1160480ELB-1_SW"                2        0.0        0.0        0.0        0.0     0.0     0.0
"Line.MDV201_1160480ELB"                     1        0.0        0.0        0.0        0.0     0.0     0.0        0.0        0.0        0.0        0.0
"Line.MDV201_1160480ELB"                     2        0.0        0.0        0.0        0.0     0.0     0.0
"Line.C_1P034_SW"                            1        0.0        0.0        0.0        0.0     0.0     0.0        0.0        0.0        0.0        0.0
"Line.C_1P034_SW"                            2        0.0        0.0        0.0        0.0     0.0     0.0
"Line.MDV201_8088ELB"                        1        0.0        0.0        0.0        0.0     0.0     0.0        0.0        0.0        0.0        0.0
"Line.MDV201_8088ELB"                        2        0.0        0.0        0.0        0.0     0.0     0.0
"Line.MDV201_HN_2_499_ABC834"                1     4518.9     1209.4       -1.0       -0.8    -1.5    -5.1      707.3      188.5     1642.6      437.7
"Line.MDV201_HN_2_499_ABC834"                2    -4511.0    -1202.9        1.1        0.8     1.7     5.3
"Line.MDV201_1160478ELB-1_SW"                1        0.0        0.0        0.0        0.0     0.0     0.0        0.0        0.0        0.0        0.0
"Line.MDV201_1160478ELB-1_SW"                2        0.0        0.0        0.0        0.0     0.0     0.0
"Line.MDV201_1160478ELB"                     1        0.0        0.0        0.0        0.0     0.0     0.0        0.0        0.0        0.0        0.0
"Line.MDV201_1160478ELB"                     2        0.0        0.0        0.0        0.0     0.0     0.0
"Line.MDV201_HN_2_217_ABC8160"               1     3569.9      999.3       -0.8       -0.2     3.6    -1.7        0.0        0.0        0.0        0.0
"Line.MDV201_HN_2_217_ABC8160"               2    -3569.2     -998.2        0.8        0.3    -3.6     1.9
"Line.MDV201_HN_2_942_C89791"                1        0.0        0.0        0.0        0.0     0.0     0.0        0.0        0.0        0.0        0.0
"Line.MDV201_HN_2_942_C89791"                2        0.0        0.0        0.0        0.0     0.0     0.0
"Line.MDV201_99422FUSE"                      1        0.0        0.0        0.0        0.0     0.0     0.0        0.0        0.0        0.0        0.0
"Line.MDV201_99422FUSE"                      2        0.0        0.0        0.0        0.0     0.0     0.0
"Line.MDV201_HN_2_140_ABC8124"               1      536.4      120.8        0.7       -0.1    -1.0     2.8        0.0        0.0        0.0        0.0
"Line.MDV201_HN_2_140_ABC8124"               2     -536.3     -120.7       -0.6        0.1     1.0    -2.7
"Line.MDV201_HN_2_818_ABC63707"              1     1643.5      446.1       -2.1       -2.3    -4.7   -12.0        0.0        0.0        0.0        0.0
"Line.MDV201_HN_2_818_ABC63707"              2    -1643.2     -445.6        2.2        2.5     5.0    12.5
"Line.MDV201_DA_8_731_C74450"                1        0.0        0.0        0.0        0.0     0.0     0.0        0.0        0.0        0.0        0.0
"Line.MDV201_DA_8_731_C74450"                2        0.0        0.0        0.0        0.0     0.0     0.0
"Line.MDV201_100494FUSE"                     1        0.0        0.0        0.0        0.0     0.0     0.0        0.0        0.0        0.0        0.0
"Line.MDV201_100494FUSE"                     2        0.0        0.0        0.0        0.0     0.0     0.0
"Line.MDV201_107110FUSE"                     1        0.0        0.0        0.0        0.0     0.0     0.0        0.0        0.0        0.0        0.0
"Line.MDV201_107110FUSE"                     2        0.0        0.0        0.0        0.0     0.0     0.0
"Line.MDV201_HN_2_477_C8121"                 1        0.0        0.0        0.0        0.0     0.0     0.0        0.0        0.0        0.0        0.0
"Line.MDV201_HN_2_477_C8121"                 2        0.0        0.0        0.0        0.0     0.0     0.0
"Line.MDV201_HN_2_876_C63671"                1        0.0        0.0        0.0        0.0     0.0     0.0        0.0        0.0        0.0        0.0
"Line.MDV201_HN_2_876_C63671"                2        0.0        0.0        0.0        0.0     0.0     0.0
"Line.MDV201_HN_2_671_C89781"                1        0.0        0.0        0.0        0.0     0.0     0.0        0.0        0.0        0.0        0.0
"Line.MDV201_HN_2_671_C89781"                2        0.0        0.0        0.0        0.0     0.0     0.0
"Line.MDV201_DA_8_930_A39751"                1        0.0        0.0        0.0        0.0     0.0     0.0        0.0        0.0        0.0        0.0
"Line.MDV201_DA_8_930_A39751"                2        0.0        0.0        0.0        0.0     0.0     0.0
"Line.MDV201_HN_2_394_ABC63658"              1     9797.8     2666.1       -1.1       -2.4    -4.2    -7.6        0.0        0.0        0.0        0.0
"Line.MDV201_HN_2_394_ABC63658"              2    -9794.8    -2655.4        1.1        2.5     4.5     8.1
"Line.MDV201_DA_8_687_B74448"                1        0.0        0.0        0.0        0.0     0.0     0.0        0.0        0.0        0.0        0.0
"Line.MDV201_DA_8_687_B74448"                2        0.0        0.0        0.0        0.0     0.0     0.0
"Line.MDV201_1012643FUSE"                    1        0.0        0.0        0.0        0.0     0.0     0.0        0.0        0.0        0.0        0.0
"Line.MDV201_1012643FUSE"                    2        0.0        0.0        0.0        0.0     0.0     0.0
"Line.MDV201_HN_1_238_A39569"                1        0.0        0.0        0.0        0.0     0.0     0.0        0.0        0.0        0.0        0.0
"Line.MDV201_HN_1_238_A39569"                2        0.0        0.0        0.0        0.0     0.0     0.0
"Line.MDV201_14869FUSE"                      1        0.0        0.0        0.0        0.0     0.0     0.0        0.0        0.0        0.0        0.0
"Line.MDV201_14869FUSE"                      2        0.0        0.0        0.0        0.0     0.0     0.0
"Line.MDV201_HN_1_156_C89790"                1        0.0        0.0        0.0        0.0     0.0     0.0        0.0        0.0        0.0        0.0
"Line.MDV201_HN_1_156_C89790"                2        0.0        0.0        0.0        0.0     0.0     0.0
"Line.MDV201_HN_2_318_C28272"                1        0.0        0.0        0.0        0.0     0.0     0.0        0.0        0.0        0.0        0.0
"Line.MDV201_HN_2_318_C28272"                2        0.0        0.0        0.0        0.0     0.0     0.0
"Line.MDV201_C_1_140_ABC69477"               1        5.6        0.7       -0.0       -0.0    -0.0    -0.1        0.0        0.0        0.0        0.0
"Line.MDV201_C_1_140_ABC69477"               2       -5.6       -0.8        0.0        0.0     0.0     0.1
"Line.MDV201_HN_2_948_C8176"                 1        0.0        0.0        0.0        0.0     0.0     0.0        0.0        0.0        0.0        0.0
"Line.MDV201_HN_2_948_C8176"                 2        0.0        0.0        0.0        0.0     0.0     0.0
"Line.MDV201_1144230FUSE"                    1        0.0        0.0        0.0        0.0     0.0     0.0        0.0        0.0        0.0        0.0
"Line.MDV201_1144230FUSE"                    2        0.0        0.0        0.0        0.0     0.0     0.0
"Line.MDV201_HN_2_105_ABC39582"              1     1794.6      453.7       -3.0       -0.4    -0.4   -10.7        0.0        0.0        0.0        0.0
"Line.MDV201_HN_2_105_ABC39582"              2    -1793.4     -452.9        3.1        0.4     0.5    10.9
"Line.MDV201_DA_8_691_B46386"                1        0.0        0.0        0.0        0.0     0.0     0.0        0.0        0.0        0.0        0.0
"Line.MDV201_DA_8_691_B46386"                2        0.0        0.0        0.0        0.0     0.0     0.0
"Line.MDV201_HN_2_457_C62244"                1        0.0        0.0        0.0        0.0     0.0     0.0        0.0        0.0        0.0        0.0
"Line.MDV201_HN_2_457_C62244"                2        0.0        0.0        0.0        0.0     0.0     0.0
"Line.C_1P038_SW"                            1        0.0        0.0        0.0        0.0     0.0     0.0        0.0        0.0        0.0        0.0
"Line.C_1P038_SW"                            2        0.0        0.0        0.0        0.0     0.0     0.0
"Line.MDV201_8075ELB"                        1        0.0        0.0        0.0        0.0     0.0     0.0        0.0        0.0        0.0        0.0
"Line.MDV201_8075ELB"                        2        0.0        0.0        0.0        0.0     0.0     0.0
"Line.C_1P032_SW"                            1        0.0        0.0        0.0        0.0     0.0     0.0        0.0        0.0        0.0        0.0
"Line.C_1P032_SW"                            2        0.0        0.0        0.0        0.0     0.0     0.0
"Line.MDV201_107997ELB"                      1        0.0        0.0        0.0        0.0     0.0     0.0        0.0        0.0        0.0        0.0
"Line.MDV201_107997ELB"                      2        0.0        0.0        0.0        0.0     0.0     0.0
"Line.MDV201_HN_2_949_C8180"                 1        0.0        0.0        0.0        0.0     0.0     0.0        0.0        0.0        0.0        0.0
"Line.MDV201_HN_2_949_C8180"                 2        0.0        0.0        0.0        0.0     0.0     0.0
"Line.MDV201_C_1P024_A8100"                  1        0.0        0.0        0.0        0.0     0.0     0.0        0.0        0.0        0.0        0.0
"Line.MDV201_C_1P024_A8100"                  2        0.0        0.0        0.0        0.0     0.0     0.0
"Line.MDV201_HN_2_166_C33824"                1        0.0        0.0        0.0        0.0     0.0     0.0        0.0        0.0        0.0        0.0
"Line.MDV201_HN_2_166_C33824"                2        0.0        0.0        0.0        0.0     0.0     0.0
"Line.MDV201_HN_2_827_A14873"                1        0.0        0.0        0.0        0.0     0.0     0.0        0.0        0.0        0.0        0.0
"Line.MDV201_HN_2_827_A14873"                2        0.0        0.0        0.0        0.0     0.0     0.0
"Line.HN_2P017_SW"                           1        0.0        0.0        0.0        0.0     0.0     0.0        0.0        0.0        0.0        0.0
"Line.HN_2P017_SW"                           2        0.0        0.0        0.0        0.0     0.0     0.0
"Line.MDV201_62249ELB"                       1        0.0        0.0        0.0        0.0     0.0     0.0        0.0        0.0        0.0        0.0
"Line.MDV201_62249ELB"                       2        0.0        0.0        0.0        0.0     0.0     0.0
"Line.MDV201_HN_2_397_B63634"                1        0.0        0.0        0.0        0.0     0.0     0.0        0.0        0.0        0.0        0.0
"Line.MDV201_HN_2_397_B63634"                2        0.0        0.0        0.0        0.0     0.0     0.0
"Line.MDV201_C_1P037_A1160467"               1        0.0        0.0        0.0        0.0     0.0     0.0        0.0        0.0        0.0        0.0
"Line.MDV201_C_1P037_A1160467"               2        0.0        0.0        0.0        0.0     0.0     0.0
"Line.MDV201_HN_2_280_A8185"                 1        0.0        0.0        0.0        0.0     0.0     0.0        0.0        0.0        0.0        0.0
"Line.MDV201_HN_2_280_A8185"                 2        0.0        0.0        0.0        0.0     0.0     0.0
"Line.MDV201_HN_2_794_ABC791"                1    14235.7     4325.1       -0.1       -1.5    -0.1    -1.2     2200.0      668.0        0.0        0.0
"Line.MDV201_HN_2_794_ABC791"                2   -14225.8    -4290.2        0.2        1.5     0.2     1.3
"Line.MDV201_HN_2_677_C62303"                1        0.0        0.0        0.0        0.0     0.0     0.0        0.0        0.0        0.0        0.0
"Line.MDV201_HN_2_677_C62303"                2        0.0        0.0        0.0        0.0     0.0     0.0
"Line.MDV201_100478FUSE"                     1        0.0        0.0        0.0        0.0     0.0     0.0        0.0        0.0        0.0        0.0
"Line.MDV201_100478FUSE"                     2        0.0        0.0        0.0        0.0     0.0     0.0
"Line.MDV201_HN_2_115_ABC58446"              1      496.8      113.5        0.2        1.4     5.0     0.8        0.0        0.0        0.0        0.0
"Line.MDV201_HN_2_115_ABC58446"              2     -496.8     -113.4       -0.2       -1.4    -5.0    -0.8
"Line.MDV201_HN_2_895_B52515"                1        0.0        0.0        0.0        0.0     0.0     0.0        0.0        0.0        0.0        0.0
"Line.MDV201_HN_2_895_B52515"                2        0.0        0.0        0.0        0.0     0.0     0.0
"Line.MDV201_98795FUSE"                      1       23.4        4.6        0.0       -0.0    -0.0    -0.0        0.0        0.0        0.0        0.0
"Line.MDV201_98795FUSE"                      2      -23.4       -4.6       -0.0        0.0     0.0     0.0
"Line.MDV201_HN_2_246_B39602"                1        0.0        0.0        0.0        0.0     0.0     0.0        0.0        0.0        0.0        0.0
"Line.MDV201_HN_2_246_B39602"                2        0.0        0.0        0.0        0.0     0.0     0.0
"Line.MDV201_DA_8_149_ABC56778"              1     1051.5      270.0        1.0       -0.2    -0.8    -0.2        0.0        0.0        0.0        0.0
"Line.MDV201_DA_8_149_ABC56778"              2    -1051.2     -269.7       -1.0        0.3     0.8     0.4
"Line.MDV201_HN_2_083_ABC62239"              1     2441.1      673.9       -0.6        0.3     1.7     0.8        0.0        0.0        0.0        0.0
"Line.MDV201_HN_2_083_ABC62239"              2    -2440.7     -673.2        0.6       -0.3    -1.7    -0.8
"Line.MDV201_DA_8_145_ABC46393"              1       -0.0       -0.0        0.0       -0.0    -0.0    -0.0        0.0        0.0        0.0        0.0
"Line.MDV201_DA_8_145_ABC46393"              2       -0.0       -0.0        0.0        0.0    -0.0    -0.0
"Line.MDV201_HN_2_729_B28246"                1        0.0        0.0        0.0        0.0     0.0     0.0        0.0        0.0        0.0        0.0
"Line.MDV201_HN_2_729_B28246"                2        0.0        0.0        0.0        0.0     0.0     0.0
"Line.MDV201_HN_2_954_B39771"                1        0.0        0.0        0.0        0.0     0.0     0.0        0.0        0.0        0.0        0.0
"Line.MDV201_HN_2_954_B39771"                2        0.0        0.0        0.0        0.0     0.0     0.0
"Line.MDV201_108776FUSE"                     1        0.0        0.0        0.0        0.0     0.0     0.0        0.0        0.0        0.0        0.0
"Line.MDV201_108776FUSE"                     2        0.0        0.0        0.0        0.0     0.0     0.0
"Line.HN_2P028_SW"                           1        0.0        0.0        0.0        0.0     0.0     0.0        0.0        0.0        0.0        0.0
"Line.HN_2P028_SW"                           2        0.0        0.0        0.0        0.0     0.0     0.0
"Line.MDV201_795ELB"                         1        0.0        0.0        0.0        0.0     0.0     0.0        0.0        0.0        0.0        0.0
"Line.MDV201_795ELB"                         2        0.0        0.0        0.0        0.0     0.0     0.0
"Line.MDV201_1140227FUSE"                    1        0.0        0.0        0.0        0.0     0.0     0.0        0.0        0.0        0.0        0.0
"Line.MDV201_1140227FUSE"                    2        0.0        0.0        0.0        0.0     0.0     0.0
"Line.MDV201_HN_2_488_C8103"                 1        0.0        0.0        0.0        0.0     0.0     0.0        0.0        0.0        0.0        0.0
"Line.MDV201_HN_2_488_C8103"                 2        0.0        0.0        0.0        0.0     0.0     0.0
"Line.MDV201_DA_8_917_A56768"                1        0.0        0.0        0.0        0.0     0.0     0.0        0.0        0.0        0.0        0.0
"Line.MDV201_DA_8_917_A56768"                2        0.0        0.0        0.0        0.0     0.0     0.0
"Line.MDV201_HN_2_029_ABC62262"              1     2054.8      564.8       -0.8        0.6     1.7     1.5        0.0        0.0        0.0        0.0
"Line.MDV201_HN_2_029_ABC62262"              2    -2054.3     -564.0        0.9       -0.5    -1.6    -1.4
"Line.MDV201_HN_2_955_B39752"                1        0.0        0.0        0.0        0.0     0.0     0.0        0.0        0.0        0.0        0.0
"Line.MDV201_HN_2_955_B39752"                2        0.0        0.0        0.0        0.0     0.0     0.0
"Line.MDV201_DA_8_215_B1017348"              1        0.0        0.0        0.0        0.0     0.0     0.0        0.0        0.0        0.0        0.0
"Line.MDV201_DA_8_215_B1017348"              2        0.0        0.0        0.0        0.0     0.0     0.0
"Line.MDV201_DA_8_678_A56764"                1        0.0        0.0        0.0        0.0     0.0     0.0        0.0        0.0        0.0        0.0
"Line.MDV201_DA_8_678_A56764"                2        0.0        0.0        0.0        0.0     0.0     0.0
"Line.MDV201_HN_2_834_B39617"                1        0.0        0.0        0.0        0.0     0.0     0.0        0.0        0.0        0.0        0.0
"Line.MDV201_HN_2_834_B39617"                2        0.0        0.0        0.0        0.0     0.0     0.0
"Line.MDV201_HN_2_906_A39580"                1        0.0        0.0        0.0        0.0     0.0     0.0        0.0        0.0        0.0        0.0
"Line.MDV201_HN_2_906_A39580"                2        0.0        0.0        0.0        0.0     0.0     0.0
"Line.MDV201_DA_8_734_C74440"                1        0.0        0.0        0.0        0.0     0.0     0.0        0.0        0.0        0.0        0.0
"Line.MDV201_DA_8_734_C74440"                2        0.0        0.0        0.0        0.0     0.0     0.0
"Line.MDV201_DA_8_157_ABC58429"              1      557.0      146.8       -0.0       -1.3     0.2    -2.3        0.0        0.0        0.0        0.0
"Line.MDV201_DA_8_157_ABC58429"              2     -557.0     -146.7        0.0        1.4    -0.1     2.5
"Line.MDV201_HN_2_605_A21655"                1        0.0        0.0        0.0        0.0     0.0     0.0        0.0        0.0        0.0        0.0
"Line.MDV201_HN_2_605_A21655"                2        0.0        0.0        0.0        0.0     0.0     0.0
"Line.MDV201_HN_2_636_AC28249"               1        0.0        0.0        0.0        0.0     0.0     0.0        0.0        0.0        0.0        0.0
"Line.MDV201_HN_2_636_AC28249"               2        0.0        0.0        0.0        0.0     0.0     0.0
"Line.MDV201_HN_2_705_ABC52524"              1     1738.9      471.5       -1.5       -2.0    -4.7    -9.5        0.0        0.0        0.0        0.0
"Line.MDV201_HN_2_705_ABC52524"              2    -1738.6     -471.1        1.5        2.1     4.9     9.8
"Line.MDV201_DA_8_928_A39733"                1        0.0        0.0        0.0        0.0     0.0     0.0        0.0        0.0        0.0        0.0
"Line.MDV201_DA_8_928_A39733"                2        0.0        0.0        0.0        0.0     0.0     0.0
"Line.MDV201_HN_2_383_ABC8113"               1      536.5      120.8        0.7       -0.1    -1.0     2.9        0.0        0.0        0.0        0.0
"Line.MDV201_HN_2_383_ABC8113"               2     -536.4     -120.8       -0.7        0.1     1.0    -2.8
"Line.MDV201_HN_2_803_B837"                  1        0.0        0.0        0.0        0.0     0.0     0.0        0.0        0.0        0.0        0.0
"Line.MDV201_HN_2_803_B837"                  2        0.0        0.0        0.0        0.0     0.0     0.0
"Line.SW-HN_2_793_SW"                        1    14237.2     4327.6       -0.1       -1.5    -0.1    -1.2     6458.8     1962.0     2569.7      780.6
"Line.SW-HN_2_793_SW"                        2   -14235.7    -4326.2        0.1        1.5     0.1     1.2
"Line.MDV201_796USD"                         1    14235.7     4326.2       -0.1       -1.5    -0.1    -1.2        0.0        0.0        0.0        0.0
"Line.MDV201_796USD"                         2   -14235.7    -4325.1        0.1        1.5     0.1     1.2
"Line.MDV201_HN_1_332_C28263"                1        0.0        0.0        0.0        0.0     0.0     0.0        0.0        0.0        0.0        0.0
"Line.MDV201_HN_1_332_C28263"                2        0.0        0.0        0.0        0.0     0.0     0.0
"Line.MDV201_HN_2_890_B52521"                1        0.0        0.0        0.0        0.0     0.0     0.0        0.0        0.0        0.0        0.0
"Line.MDV201_HN_2_890_B52521"                2        0.0        0.0        0.0        0.0     0.0     0.0
"Line.MDV201_HN_2_377_ABC28196"              1       42.3        8.6       -0.0       -0.0    -0.1    -0.0        0.0        0.0        0.0        0.0
"Line.MDV201_HN_2_377_ABC28196"              2      -42.3       -8.6        0.0        0.0     0.1     0.0
"Line.MDV201_HN_1_331_C28262"                1        0.0        0.0        0.0        0.0     0.0     0.0        0.0        0.0        0.0        0.0
"Line.MDV201_HN_1_331_C28262"                2        0.0        0.0        0.0        0.0     0.0     0.0
"Line.MDV201_HN_2_628_C52531"                1        0.0        0.0        0.0        0.0     0.0     0.0        0.0        0.0        0.0        0.0
"Line.MDV201_HN_2_628_C52531"                2        0.0        0.0        0.0        0.0     0.0     0.0
"Line.MDV201_HN_2_964_A14870"                1        0.0        0.0        0.0        0.0     0.0     0.0        0.0        0.0        0.0        0.0
"Line.MDV201_HN_2_964_A14870"                2        0.0        0.0        0.0        0.0     0.0     0.0
"Line.MDV201_DA_8_200_C46399"                1        0.0        0.0        0.0        0.0     0.0     0.0        0.0        0.0        0.0        0.0
"Line.MDV201_DA_8_200_C46399"                2        0.0        0.0        0.0        0.0     0.0     0.0
"Line.MDV201_106895FUSE"                     1        0.0        0.0        0.0        0.0     0.0     0.0        0.0        0.0        0.0        0.0
"Line.MDV201_106895FUSE"                     2        0.0        0.0        0.0        0.0     0.0     0.0
"Line.HN_2P054_SW"                           1        0.0        0.0        0.0        0.0     0.0     0.0        0.0        0.0        0.0        0.0
"Line.HN_2P054_SW"                           2        0.0        0.0        0.0        0.0     0.0     0.0
"Line.MDV201_1163443ELB"                     1        0.0        0.0        0.0        0.0     0.0     0.0        0.0        0.0        0.0        0.0
"Line.MDV201_1163443ELB"                     2        0.0        0.0        0.0        0.0     0.0     0.0
"Line.MDV201_DA_8_142_ABC6584"               1     1889.4      518.6       -0.9        0.1     0.8     0.3        0.0        0.0        0.0        0.0
"Line.MDV201_DA_8_142_ABC6584"               2    -1888.9     -517.8        0.9       -0.1    -0.8    -0.2
"Line.MDV201_1144249FUSE"                    1        0.0        0.0        0.0        0.0     0.0     0.0        0.0        0.0        0.0        0.0
"Line.MDV201_1144249FUSE"                    2        0.0        0.0        0.0        0.0     0.0     0.0
"Line.MDV201_HN_2_965_A63726"                1        0.0        0.0        0.0        0.0     0.0     0.0        0.0        0.0        0.0        0.0
"Line.MDV201_HN_2_965_A63726"                2        0.0        0.0        0.0        0.0     0.0     0.0
"Line.MDV201_C_1_410_A8131"                  1        0.0        0.0        0.0        0.0     0.0     0.0        0.0        0.0        0.0        0.0
"Line.MDV201_C_1_410_A8131"                  2        0.0        0.0        0.0        0.0     0.0     0.0
"Line.MDV201_HN_2_463_C62234"                1        0.0        0.0        0.0        0.0     0.0     0.0        0.0        0.0        0.0        0.0
"Line.MDV201_HN_2_463_C62234"                2        0.0        0.0        0.0        0.0     0.0     0.0
"Line.MDV201_HN_2_133_ABC8083"               1     3477.5      929.1       -1.7       -3.3   -11.2    -9.4      542.6      143.5     1260.0      333.3
"Line.MDV201_HN_2_133_ABC8083"               2    -3475.4     -927.5        1.9        3.4    11.6     9.8
"Line.MDV201_HN_2_840_B52518"                1        0.0        0.0        0.0        0.0     0.0     0.0        0.0        0.0        0.0        0.0
"Line.MDV201_HN_2_840_B52518"                2        0.0        0.0        0.0        0.0     0.0     0.0
"Line.MDV201_HN_2_808_ABC783"                1    14203.3     4211.2       -0.2       -1.3    -0.3    -1.6     2195.0      650.4        0.0        0.0
"Line.MDV201_HN_2_808_ABC783"                2   -14193.8    -4177.5        0.2        1.3     0.4     1.8
"Line.MDV201_HN_2_608_A8133"                 1        0.0        0.0        0.0        0.0     0.0     0.0        0.0        0.0        0.0        0.0
"Line.MDV201_HN_2_608_A8133"                 2        0.0        0.0        0.0        0.0     0.0     0.0
"Line.MDV201_C_1P032_1160490"                1        0.0        0.0        0.0        0.0     0.0     0.0        0.0        0.0        0.0        0.0
"Line.MDV201_C_1P032_1160490"                2        0.0        0.0        0.0        0.0     0.0     0.0
"Line.MDV201_HN_2_077_C28274"                1        0.0        0.0        0.0        0.0     0.0     0.0        0.0        0.0        0.0        0.0
"Line.MDV201_HN_2_077_C28274"                2        0.0        0.0        0.0        0.0     0.0     0.0
"Line.MDV201_HN_2_711_A63676"                1        0.0        0.0        0.0        0.0     0.0     0.0        0.0        0.0        0.0        0.0
"Line.MDV201_HN_2_711_A63676"                2        0.0        0.0        0.0        0.0     0.0     0.0
"Line.MDV201_HN_2_923_C28266"                1        0.0        0.0        0.0        0.0     0.0     0.0        0.0        0.0        0.0        0.0
"Line.MDV201_HN_2_923_C28266"                2        0.0        0.0        0.0        0.0     0.0     0.0
"Line.MDV201_HN_21041_C39773"                1        0.0        0.0        0.0        0.0     0.0     0.0        0.0        0.0        0.0        0.0
"Line.MDV201_HN_21041_C39773"                2        0.0        0.0        0.0        0.0     0.0     0.0
"Line.MDV201_HN_2_644_A28238"                1        0.0        0.0        0.0        0.0     0.0     0.0        0.0        0.0        0.0        0.0
"Line.MDV201_HN_2_644_A28238"                2        0.0        0.0        0.0        0.0     0.0     0.0
"Line.MDV201_1144260FUSE"                    1        0.0        0.0        0.0        0.0     0.0     0.0        0.0        0.0        0.0        0.0
"Line.MDV201_1144260FUSE"                    2        0.0        0.0        0.0        0.0     0.0     0.0
"Line.MDV201_HN_2_539_C8098"                 1        0.0        0.0        0.0        0.0     0.0     0.0        0.0        0.0        0.0        0.0
"Line.MDV201_HN_2_539_C8098"                 2        0.0        0.0        0.0        0.0     0.0     0.0
"Line.MDV201_HN_2_800_B850"                  1        0.0        0.0        0.0        0.0     0.0     0.0        0.0        0.0        0.0        0.0
"Line.MDV201_HN_2_800_B850"                  2        0.0        0.0        0.0        0.0     0.0     0.0
"Line.MDV201_HN_2_092_ABC63711"              1     3612.2     1014.6       -0.6        0.2     3.9    -0.9        0.0        0.0        0.0        0.0
"Line.MDV201_HN_2_092_ABC63711"              2    -3609.1    -1010.1        0.7        0.1    -3.6     1.5
"Line.MDV201_HN_2P014_B1160485"              1        0.0        0.0        0.0        0.0     0.0     0.0        0.0        0.0        0.0        0.0
"Line.MDV201_HN_2P014_B1160485"              2        0.0        0.0        0.0        0.0     0.0     0.0
"Line.MDV201_C_1_412_A8128"                  1        0.0        0.0        0.0        0.0     0.0     0.0        0.0        0.0        0.0        0.0
"Line.MDV201_C_1_412_A8128"                  2        0.0        0.0        0.0        0.0     0.0     0.0
"Line.MDV201_HN_2_533_A8117"                 1        0.0        0.0        0.0        0.0     0.0     0.0        0.0        0.0        0.0        0.0
"Line.MDV201_HN_2_533_A8117"                 2        0.0        0.0        0.0        0.0     0.0     0.0
"Line.MDV201_HN_2_970_A63710"                1        0.0        0.0        0.0        0.0     0.0     0.0        0.0        0.0        0.0        0.0
"Line.MDV201_HN_2_970_A63710"                2        0.0        0.0        0.0        0.0     0.0     0.0
"Line.MDV201_C_1_400_A21653"                 1        0.0        0.0        0.0        0.0     0.0     0.0        0.0        0.0        0.0        0.0
"Line.MDV201_C_1_400_A21653"                 2        0.0        0.0        0.0        0.0     0.0     0.0
"Line.MDV201_HN_2_124_C63703"                1        0.0        0.0        0.0        0.0     0.0     0.0        0.0        0.0        0.0        0.0
"Line.MDV201_HN_2_124_C63703"                2        0.0        0.0        0.0        0.0     0.0     0.0
"Line.MDV201_106254FUSE"                     1        0.0        0.0        0.0        0.0     0.0     0.0        0.0        0.0        0.0        0.0
"Line.MDV201_106254FUSE"                     2        0.0        0.0        0.0        0.0     0.0     0.0
"Line.MDV201_HN_1_380_C1012407"              1        0.0        0.0        0.0        0.0     0.0     0.0        0.0        0.0        0.0        0.0
"Line.MDV201_HN_1_380_C1012407"              2        0.0        0.0        0.0        0.0     0.0     0.0
"Line.MDV201_HN_2_381_ABC1010731"            1      667.5      154.3        0.7        0.3     0.5     3.3        0.0        0.0        0.0        0.0
"Line.MDV201_HN_2_381_ABC1010731"            2     -667.4     -154.2       -0.7       -0.3    -0.5    -3.2
"Line.MDV201_DA_8_732_C74453"                1        0.0        0.0        0.0        0.0     0.0     0.0        0.0        0.0        0.0        0.0
"Line.MDV201_DA_8_732_C74453"                2        0.0        0.0        0.0        0.0     0.0     0.0
"Line.MDV201_DA_8_144_ABC6582"               1     1913.4      526.0       -0.9        0.1     0.9     0.4        0.0        0.0        0.0        0.0
"Line.MDV201_DA_8_144_ABC6582"               2    -1913.2     -525.6        0.9       -0.1    -0.9    -0.3
"Line.MDV201_HN_1_147_C1012412"              1        0.0        0.0        0.0        0.0     0.0     0.0        0.0        0.0        0.0        0.0
"Line.MDV201_HN_1_147_C1012412"              2        0.0        0.0        0.0        0.0     0.0     0.0
"Line.MDV201_HN_2_846_B69620"                1        0.0        0.0        0.0        0.0     0.0     0.0        0.0        0.0        0.0        0.0
"Line.MDV201_HN_2_846_B69620"                2        0.0        0.0        0.0        0.0     0.0     0.0
"Line.MDV201_HN_2_814_ABC14891"              1     3905.6     1109.6       -0.1        1.5     4.5     2.5        0.0        0.0        0.0        0.0
"Line.MDV201_HN_2_814_ABC14891"              2    -3902.0    -1104.3        0.2       -1.2    -4.2    -2.0
"Line.MDV201_DA_8_868_B1103250"              1        0.0        0.0        0.0        0.0     0.0     0.0        0.0        0.0        0.0        0.0
"Line.MDV201_DA_8_868_B1103250"              2        0.0        0.0        0.0        0.0     0.0     0.0
"Line.MDV201_1017350FUSE"                    1        0.0        0.0        0.0        0.0     0.0     0.0        0.0        0.0        0.0        0.0
"Line.MDV201_1017350FUSE"                    2        0.0        0.0        0.0        0.0     0.0     0.0
"Line.MDV201_HN_2_719_C14872"                1        0.0        0.0        0.0        0.0     0.0     0.0        0.0        0.0        0.0        0.0
"Line.MDV201_HN_2_719_C14872"                2        0.0        0.0        0.0        0.0     0.0     0.0
"Line.MDV201_HN_2_930_B62301"                1        0.0        0.0        0.0        0.0     0.0     0.0        0.0        0.0        0.0        0.0
"Line.MDV201_HN_2_930_B62301"                2        0.0        0.0        0.0        0.0     0.0     0.0
"Line.MDV201_HN_2_407_B809"                  1        0.0        0.0        0.0        0.0     0.0     0.0        0.0        0.0        0.0        0.0
"Line.MDV201_HN_2_407_B809"                  2        0.0        0.0        0.0        0.0     0.0     0.0
"Line.MDV201_HN_2_650_A28242"                1        0.0        0.0        0.0        0.0     0.0     0.0        0.0        0.0        0.0        0.0
"Line.MDV201_HN_2_650_A28242"                2        0.0        0.0        0.0        0.0     0.0     0.0
"Line.MDV201_DA_8_492_ABC74428"              1      993.2      253.9        0.9       -0.5    -0.9    -0.7        0.0        0.0        0.0        0.0
"Line.MDV201_DA_8_492_ABC74428"              2     -993.1     -253.7       -0.9        0.5     0.9     0.8
"Line.MDV201_HN_2_151_C14833"                1        0.0        0.0        0.0        0.0     0.0     0.0        0.0        0.0        0.0        0.0
"Line.MDV201_HN_2_151_C14833"                2        0.0        0.0        0.0        0.0     0.0     0.0
"Line.MDV201_HN_2_641_AC14893"               1        0.0        0.0        0.0        0.0     0.0     0.0        0.0        0.0        0.0        0.0
"Line.MDV201_HN_2_641_AC14893"               2        0.0        0.0        0.0        0.0     0.0     0.0
"Line.MDV201_DA_8_203_C46407"                1        0.0        0.0        0.0        0.0     0.0     0.0        0.0        0.0        0.0        0.0
"Line.MDV201_DA_8_203_C46407"                2        0.0        0.0        0.0        0.0     0.0     0.0
"Line.MDV201_HN_1_172_A94737"                1        0.0        0.0        0.0        0.0     0.0     0.0        0.0        0.0        0.0        0.0
"Line.MDV201_HN_1_172_A94737"                2        0.0        0.0        0.0        0.0     0.0     0.0
"Line.MDV201_HN_1_165_C89780"                1        0.0        0.0        0.0        0.0     0.0     0.0        0.0        0.0        0.0        0.0
"Line.MDV201_HN_1_165_C89780"                2        0.0        0.0        0.0        0.0     0.0     0.0
"Line.MDV201_HN_2_127_C63708"                1        0.0        0.0        0.0        0.0     0.0     0.0        0.0        0.0        0.0        0.0
"Line.MDV201_HN_2_127_C63708"                2        0.0        0.0        0.0        0.0     0.0     0.0
"Line.MDV201_PB_0928_A1000987"               1        0.0        0.0        0.0        0.0     0.0     0.0        0.0        0.0        0.0        0.0
"Line.MDV201_PB_0928_A1000987"               2        0.0        0.0        0.0        0.0     0.0     0.0
"Line.MDV201_HN_2_128_ABC28288"              1      344.6       81.3       -0.3        1.3     5.0    -1.0        0.0        0.0        0.0        0.0
"Line.MDV201_HN_2_128_ABC28288"              2     -344.6      -81.3        0.3       -1.3    -4.9     1.0
"Line.SW-HN_2_381_SW"                        1      667.4      154.2        0.7        0.3     0.5     3.2        0.0        0.0        0.0        0.0
"Line.SW-HN_2_381_SW"                        2     -667.4     -154.2       -0.7       -0.3    -0.5    -3.2
"Line.MDV201_1010732USD"                     1      667.4      154.2        0.7        0.3     0.5     3.2        0.0        0.0        0.0        0.0
"Line.MDV201_1010732USD"                     2     -667.4     -154.2       -0.7       -0.3    -0.5    -3.2
"Line.MDV201_1144262FUSE"                    1        0.0        0.0        0.0        0.0     0.0     0.0        0.0        0.0        0.0        0.0
"Line.MDV201_1144262FUSE"                    2        0.0        0.0        0.0        0.0     0.0     0.0
"Line.MDV201_C_1_138_ABC1127424"             1       -0.0       -0.1       -0.0        0.0     0.0    -0.0        0.0        0.0        0.0        0.0
"Line.MDV201_C_1_138_ABC1127424"             2        0.0        0.0        0.0       -0.0    -0.0     0.0
"Line.MDV201_DA_8_234_ABC56762"              1     1599.9      437.5       -0.3       -0.1     0.3     0.0        0.0        0.0        0.0        0.0
"Line.MDV201_DA_8_234_ABC56762"              2    -1599.6     -437.0        0.3        0.1    -0.3    -0.0
"Line.MDV201_1144253FUSE"                    1        0.0        0.0        0.0        0.0     0.0     0.0        0.0        0.0        0.0        0.0
"Line.MDV201_1144253FUSE"                    2        0.0        0.0        0.0        0.0     0.0     0.0
"Line.MDV201_HN_2_120_A28281"                1        0.0        0.0        0.0        0.0     0.0     0.0        0.0        0.0        0.0        0.0
"Line.MDV201_HN_2_120_A28281"                2        0.0        0.0        0.0        0.0     0.0     0.0
"Line.MDV201_HN_1_274_A94747"                1        0.0        0.0        0.0        0.0     0.0     0.0        0.0        0.0        0.0        0.0
"Line.MDV201_HN_1_274_A94747"                2        0.0        0.0        0.0        0.0     0.0     0.0
"Line.MDV201_HN_2_852_B39588"                1        0.0        0.0        0.0        0.0     0.0     0.0        0.0        0.0        0.0        0.0
"Line.MDV201_HN_2_852_B39588"                2        0.0        0.0        0.0        0.0     0.0     0.0
"Line.MDV201_HN_2_820_B39623"                1        0.0        0.0        0.0        0.0     0.0     0.0        0.0        0.0        0.0        0.0
"Line.MDV201_HN_2_820_B39623"                2        0.0        0.0        0.0        0.0     0.0     0.0
"Line.MDV201_C_1_506_A8143"                  1        0.0        0.0        0.0        0.0     0.0     0.0        0.0        0.0        0.0        0.0
"Line.MDV201_C_1_506_A8143"                  2        0.0        0.0        0.0        0.0     0.0     0.0
"Line.MDV201_DA_8_216_B1017349"              1        0.0        0.0        0.0        0.0     0.0     0.0        0.0        0.0        0.0        0.0
"Line.MDV201_DA_8_216_B1017349"              2        0.0        0.0        0.0        0.0     0.0     0.0
"Line.MDV201_HN_2_291_ABC63681"              1     2707.9      720.4       -0.9       -0.4     0.7    -4.3        0.0        0.0        0.0        0.0
"Line.MDV201_HN_2_291_ABC63681"              2    -2707.3     -719.1        0.9        0.4    -0.7     4.4
"Line.MDV201_106259FUSE"                     1        0.0        0.0        0.0        0.0     0.0     0.0        0.0        0.0        0.0        0.0
"Line.MDV201_106259FUSE"                     2        0.0        0.0        0.0        0.0     0.0     0.0
"Line.MDV201_HN_2_382_ABC823"                1      667.4      154.2        0.7        0.3     0.5     3.2        0.0        0.0        0.0        0.0
"Line.MDV201_HN_2_382_ABC823"                2     -667.3     -154.2       -0.7       -0.3    -0.4    -3.2
"Line.MDV201_HN_2_821_B39618"                1        0.0        0.0        0.0        0.0     0.0     0.0        0.0        0.0        0.0        0.0
"Line.MDV201_HN_2_821_B39618"                2        0.0        0.0        0.0        0.0     0.0     0.0
"Line.MDV201_HN_2_927_C94731"                1        0.0        0.0        0.0        0.0     0.0     0.0        0.0        0.0        0.0        0.0
"Line.MDV201_HN_2_927_C94731"                2        0.0        0.0        0.0        0.0     0.0     0.0
"Line.MDV201_HN_2_235_ABC854"                1       29.2        6.6        0.0       -0.0    -0.0     0.0        0.0        0.0        0.0        0.0
"Line.MDV201_HN_2_235_ABC854"                2      -29.2       -6.6       -0.0        0.0     0.0    -0.0
"Line.MDV201_HN_2_306_ABC28286"              1      467.2      107.5        0.2        1.2     4.5     0.8        0.0        0.0        0.0        0.0
"Line.MDV201_HN_2_306_ABC28286"              2     -467.2     -107.5       -0.2       -1.2    -4.5    -0.8
"Line.MDV201_C_1_411_A8127"                  1        0.0        0.0        0.0        0.0     0.0     0.0        0.0        0.0        0.0        0.0
"Line.MDV201_C_1_411_A8127"                  2        0.0        0.0        0.0        0.0     0.0     0.0
"Line.MDV201_HN_2_520_A8092"                 1        0.0        0.0        0.0        0.0     0.0     0.0        0.0        0.0        0.0        0.0
"Line.MDV201_HN_2_520_A8092"                 2        0.0        0.0        0.0        0.0     0.0     0.0
"Line.MDV201_HN_2_420_A814"                  1        0.0        0.0        0.0        0.0     0.0     0.0        0.0        0.0        0.0        0.0
"Line.MDV201_HN_2_420_A814"                  2        0.0        0.0        0.0        0.0     0.0     0.0
"Line.MDV201_HN_2_153_B14829"                1        0.0        0.0        0.0        0.0     0.0     0.0      299.6       79.4      135.0       35.8
"Line.MDV201_HN_2_153_B14829"                2        0.0        0.0        0.0        0.0     0.0     0.0
"Line.MDV201_HN_2_870_C831"                  1        0.0        0.0        0.0        0.0     0.0     0.0        0.0        0.0        0.0        0.0
"Line.MDV201_HN_2_870_C831"                  2        0.0        0.0        0.0        0.0     0.0     0.0
"Line.MDV201_C_1_354_B1008227"               1        0.0        0.0        0.0        0.0     0.0     0.0        0.0        0.0        0.0        0.0
"Line.MDV201_C_1_354_B1008227"               2        0.0        0.0        0.0        0.0     0.0     0.0
"Line.MDV201_HN_21036_ABC28186"              1       29.2        6.6        0.0       -0.0    -0.0     0.0        0.0        0.0        0.0        0.0
"Line.MDV201_HN_21036_ABC28186"              2      -29.2       -6.6       -0.0        0.0     0.0    -0.0
"Line.MDV201_DA_8_139_B56756"                1        0.0        0.0        0.0        0.0     0.0     0.0        0.0        0.0        0.0        0.0
"Line.MDV201_DA_8_139_B56756"                2        0.0        0.0        0.0        0.0     0.0     0.0
"Line.MDV201_HN_2_422_A790"                  1        0.0        0.0        0.0        0.0     0.0     0.0        0.0        0.0        0.0        0.0
"Line.MDV201_HN_2_422_A790"                  2        0.0        0.0        0.0        0.0     0.0     0.0
"Line.HN_2P011_SW"                           1        0.0        0.0        0.0        0.0     0.0     0.0        0.0        0.0        0.0        0.0
"Line.HN_2P011_SW"                           2        0.0        0.0        0.0        0.0     0.0     0.0
"Line.MDV201_15005ELB"                       1        0.0        0.0        0.0        0.0     0.0     0.0        0.0        0.0        0.0        0.0
"Line.MDV201_15005ELB"                       2        0.0        0.0        0.0        0.0     0.0     0.0
"Line.MDV201_1149717FUSE"                    1       24.7        6.9        0.0        0.0    -0.0     0.0        0.0        0.0        0.0        0.0
"Line.MDV201_1149717FUSE"                    2      -24.7       -6.9       -0.0       -0.0     0.0    -0.0
"Line.MDV201_DA_8_218_B8204"                 1        0.0        0.0        0.0        0.0     0.0     0.0        0.0        0.0        0.0        0.0
"Line.MDV201_DA_8_218_B8204"                 2        0.0        0.0        0.0        0.0     0.0     0.0
"Line.MDV201_HN_2_387_B804"                  1        0.0        0.0        0.0        0.0     0.0     0.0        0.0        0.0        0.0        0.0
"Line.MDV201_HN_2_387_B804"                  2        0.0        0.0        0.0        0.0     0.0     0.0
"Line.MDV201_HN_2_859_B94734"                1        0.0        0.0        0.0        0.0     0.0     0.0        0.0        0.0        0.0        0.0
"Line.MDV201_HN_2_859_B94734"                2        0.0        0.0        0.0        0.0     0.0     0.0
"Line.MDV201_HN_2_830_A14875"                1        0.0        0.0        0.0        0.0     0.0     0.0        0.0        0.0        0.0        0.0
"Line.MDV201_HN_2_830_A14875"                2        0.0        0.0        0.0        0.0     0.0     0.0
"Line.MDV201_1012406FUSE"                    1        0.0        0.0        0.0        0.0     0.0     0.0        0.0        0.0        0.0        0.0
"Line.MDV201_1012406FUSE"                    2        0.0        0.0        0.0        0.0     0.0     0.0
"Line.MDV201_HN_2_186_ABC15011"              1     1996.6      549.0       -0.9        0.4     1.4     1.1        0.0        0.0        0.0        0.0
"Line.MDV201_HN_2_186_ABC15011"              2    -1995.7     -547.6        1.0       -0.3    -1.3    -0.9
"Line.MDV201_HN_2_522_C855"                  1        0.0        0.0        0.0        0.0     0.0     0.0        0.0        0.0        0.0        0.0
"Line.MDV201_HN_2_522_C855"                  2        0.0        0.0        0.0        0.0     0.0     0.0
"Line.MDV201_108027FUSE"                     1        0.0        0.0        0.0        0.0     0.0     0.0        0.0        0.0        0.0        0.0
"Line.MDV201_108027FUSE"                     2        0.0        0.0        0.0        0.0     0.0     0.0
"Line.MDV201_1010727FUSE"                    1        0.0        0.0        0.0        0.0     0.0     0.0        0.0        0.0        0.0        0.0
"Line.MDV201_1010727FUSE"                    2        0.0        0.0        0.0        0.0     0.0     0.0
"Line.MDV201_HN_2_831_ABC39762"              1       -0.0       -0.0        0.0       -0.0    -0.0    -0.0        0.0        0.0        0.0        0.0
"Line.MDV201_HN_2_831_ABC39762"              2        0.0       -0.0        0.0        0.0     0.0    -0.0
"Line.MDV201_1145433FUSE"                    1        0.0        0.0        0.0        0.0     0.0     0.0        0.0        0.0        0.0        0.0
"Line.MDV201_1145433FUSE"                    2        0.0        0.0        0.0        0.0     0.0     0.0
"Line.MDV201_HN_2_540_C8108"                 1        0.0        0.0        0.0        0.0     0.0     0.0        0.0        0.0        0.0        0.0
"Line.MDV201_HN_2_540_C8108"                 2        0.0        0.0        0.0        0.0     0.0     0.0
"Line.MDV201_HN_2_653_A14878"                1        0.0        0.0        0.0        0.0     0.0     0.0        0.0        0.0        0.0        0.0
"Line.MDV201_HN_2_653_A14878"                2        0.0        0.0        0.0        0.0     0.0     0.0
"Line.MDV201_C_1_083_B69488"                 1        0.0        0.0        0.0        0.0     0.0     0.0        0.0        0.0        0.0        0.0
"Line.MDV201_C_1_083_B69488"                 2        0.0        0.0        0.0        0.0     0.0     0.0
"Line.MDV201_HN_2P016_B1160487"              1        0.0        0.0        0.0        0.0     0.0     0.0        0.0        0.0        0.0        0.0
"Line.MDV201_HN_2P016_B1160487"              2        0.0        0.0        0.0        0.0     0.0     0.0
"Line.MDV201_HN_2_223_B8168"                 1        0.0        0.0        0.0        0.0     0.0     0.0        0.0        0.0        0.0        0.0
"Line.MDV201_HN_2_223_B8168"                 2        0.0        0.0        0.0        0.0     0.0     0.0
"Line.MDV201_1163441ELB-1_SW"                1        0.0        0.0        0.0        0.0     0.0     0.0        0.0        0.0        0.0        0.0
"Line.MDV201_1163441ELB-1_SW"                2        0.0        0.0        0.0        0.0     0.0     0.0
"Line.MDV201_1163441ELB"                     1        0.0        0.0        0.0        0.0     0.0     0.0        0.0        0.0        0.0        0.0
"Line.MDV201_1163441ELB"                     2        0.0        0.0        0.0        0.0     0.0     0.0
"Line.MDV201_HN_2_731_B14852"                1        0.0        0.0        0.0        0.0     0.0     0.0        0.0        0.0        0.0        0.0
"Line.MDV201_HN_2_731_B14852"                2        0.0        0.0        0.0        0.0     0.0     0.0
"Line.C_1P035_SW"                            1        0.0        0.0        0.0        0.0     0.0     0.0        0.0        0.0        0.0        0.0
"Line.C_1P035_SW"                            2        0.0        0.0        0.0        0.0     0.0     0.0
"Line.MDV201_8082ELB"                        1        0.0        0.0        0.0        0.0     0.0     0.0        0.0        0.0        0.0        0.0
"Line.MDV201_8082ELB"                        2        0.0        0.0        0.0        0.0     0.0     0.0
"Line.MDV201_HN_2_064_C14871"                1        0.0        0.0        0.0        0.0     0.0     0.0        0.0        0.0        0.0        0.0
"Line.MDV201_HN_2_064_C14871"                2        0.0        0.0        0.0        0.0     0.0     0.0
"Line.MDV201_HN_2_878_B1144266"              1        0.0        0.0        0.0        0.0     0.0     0.0        0.0        0.0        0.0        0.0
"Line.MDV201_HN_2_878_B1144266"              2        0.0        0.0        0.0        0.0     0.0     0.0
"Line.MDV201_HN_2_149_C28298"                1        0.0        0.0        0.0        0.0     0.0     0.0        0.0        0.0        0.0        0.0
"Line.MDV201_HN_2_149_C28298"                2        0.0        0.0        0.0        0.0     0.0     0.0
"Line.MDV201_HN_1_177_C69626"                1        0.0        0.0        0.0        0.0     0.0     0.0        0.0        0.0        0.0        0.0
"Line.MDV201_HN_1_177_C69626"                2        0.0        0.0        0.0        0.0     0.0     0.0
"Line.MDV201_DA_8_809_C46402"                1        0.0        0.0        0.0        0.0     0.0     0.0        0.0        0.0        0.0        0.0
"Line.MDV201_DA_8_809_C46402"                2        0.0        0.0        0.0        0.0     0.0     0.0
"Line.MDV201_1144263FUSE"                    1        0.0        0.0        0.0        0.0     0.0     0.0        0.0        0.0        0.0        0.0
"Line.MDV201_1144263FUSE"                    2        0.0        0.0        0.0        0.0     0.0     0.0
"Line.MDV201_HN_2_868_C833"                  1        0.0        0.0        0.0        0.0     0.0     0.0        0.0        0.0        0.0        0.0
"Line.MDV201_HN_2_868_C833"                  2        0.0        0.0        0.0        0.0     0.0     0.0
"Line.MDV201_HN_2_836_B39616"                1        0.0        0.0        0.0        0.0     0.0     0.0        0.0        0.0        0.0        0.0
"Line.MDV201_HN_2_836_B39616"                2        0.0        0.0        0.0        0.0     0.0     0.0
"Line.MDV201_103731FUSE"                     1        0.0        0.0        0.0        0.0     0.0     0.0        0.0        0.0        0.0        0.0
"Line.MDV201_103731FUSE"                     2        0.0        0.0        0.0        0.0     0.0     0.0
"Line.MDV201_C_1P031_A1160501"               1        0.0        0.0        0.0        0.0     0.0     0.0        0.0        0.0        0.0        0.0
"Line.MDV201_C_1P031_A1160501"               2        0.0        0.0        0.0        0.0     0.0     0.0
"Line.MDV201_HN_2_404_B799"                  1        0.0        0.0        0.0        0.0     0.0     0.0        0.0        0.0        0.0        0.0
"Line.MDV201_HN_2_404_B799"                  2        0.0        0.0        0.0        0.0     0.0     0.0
"Line.MDV201_HN_2_121_C28294"                1        0.0        0.0        0.0        0.0     0.0     0.0        0.0        0.0        0.0        0.0
"Line.MDV201_HN_2_121_C28294"                2        0.0        0.0        0.0        0.0     0.0     0.0
"Line.MDV201_C_1_389_A1000986"               1        0.0        0.0        0.0        0.0     0.0     0.0        0.0        0.0        0.0        0.0
"Line.MDV201_C_1_389_A1000986"               2        0.0        0.0        0.0        0.0     0.0     0.0
"Line.MDV201_HN_2_491_C8114"                 1        0.0        0.0        0.0        0.0     0.0     0.0        0.0        0.0        0.0        0.0
"Line.MDV201_HN_2_491_C8114"                 2        0.0        0.0        0.0        0.0     0.0     0.0
"Line.MDV201_HN_2_837_B39584"                1        0.0        0.0        0.0        0.0     0.0     0.0        0.0        0.0        0.0        0.0
"Line.MDV201_HN_2_837_B39584"                2        0.0        0.0        0.0        0.0     0.0     0.0
"Line.MDV201_DA_8_150_ABC56781"              1     1018.1      261.0        1.0       -0.3    -0.8    -0.4        0.0        0.0        0.0        0.0
"Line.MDV201_DA_8_150_ABC56781"              2    -1017.9     -260.7       -1.0        0.4     0.9     0.6
"Line.MDV201_C_1P026_A1160505"               1        0.0        0.0        0.0        0.0     0.0     0.0        0.0        0.0        0.0        0.0
"Line.MDV201_C_1P026_A1160505"               2        0.0        0.0        0.0        0.0     0.0     0.0
"Line.MDV201_HN_2_659_C62237"                1        0.0        0.0        0.0        0.0     0.0     0.0        0.0        0.0        0.0        0.0
"Line.MDV201_HN_2_659_C62237"                2        0.0        0.0        0.0        0.0     0.0     0.0
"Line.MDV201_HN_2_893_A39590"                1        0.0        0.0        0.0        0.0     0.0     0.0        0.0        0.0        0.0        0.0
"Line.MDV201_HN_2_893_A39590"                2        0.0        0.0        0.0        0.0     0.0     0.0
"Line.HN_2P009_SW"                           1        0.0        0.0        0.0        0.0     0.0     0.0        0.0        0.0        0.0        0.0
"Line.HN_2P009_SW"                           2        0.0        0.0        0.0        0.0     0.0     0.0
"Line.MDV201_15008ELB"                       1        0.0        0.0        0.0        0.0     0.0     0.0        0.0        0.0        0.0        0.0
"Line.MDV201_15008ELB"                       2        0.0        0.0        0.0        0.0     0.0     0.0
"Line.MDV201_HN_2_173_B39600"                1        0.0        0.0        0.0        0.0     0.0     0.0        0.0        0.0        0.0        0.0
"Line.MDV201_HN_2_173_B39600"                2        0.0        0.0        0.0        0.0     0.0     0.0
"Line.MDV201_HN_2_220_B44580"                1        0.0        0.0        0.0        0.0     0.0     0.0        0.0        0.0        0.0        0.0
"Line.MDV201_HN_2_220_B44580"                2        0.0        0.0        0.0        0.0     0.0     0.0
"Line.MDV201_HN_2_630_C28228"                1        0.0        0.0        0.0        0.0     0.0     0.0        0.0        0.0        0.0        0.0
"Line.MDV201_HN_2_630_C28228"                2        0.0        0.0        0.0        0.0     0.0     0.0
"Line.MDV201_HN_2_427_B826"                  1        0.0        0.0        0.0        0.0     0.0     0.0        0.0        0.0        0.0        0.0
"Line.MDV201_HN_2_427_B826"                  2        0.0        0.0        0.0        0.0     0.0     0.0
"Line.MDV201_C_1P032_A69460"                 1        0.0        0.0        0.0        0.0     0.0     0.0        0.0        0.0        0.0        0.0
"Line.MDV201_C_1P032_A69460"                 2        0.0        0.0        0.0        0.0     0.0     0.0
"Line.MDV201_HN_2_350_ABC52517"              1      927.2      221.5       -0.2        2.0     7.1    -0.8        0.0        0.0        0.0        0.0
"Line.MDV201_HN_2_350_ABC52517"              2     -927.0     -221.4        0.2       -2.0    -7.0     0.9
"Line.MDV201_HN_2_796_ABC782"                1    14214.6     4251.2       -0.2       -1.4    -0.2    -1.4     2196.8      656.6        0.0        0.0
"Line.MDV201_HN_2_796_ABC782"                2   -14203.3    -4211.2        0.2        1.3     0.3     1.6
"Line.MDV201_HN_1_174_A94742"                1        0.0        0.0        0.0        0.0     0.0     0.0        0.0        0.0        0.0        0.0
"Line.MDV201_HN_1_174_A94742"                2        0.0        0.0        0.0        0.0     0.0     0.0
"Line.MDV201_HN_2_084_B38389"                1        0.0        0.0        0.0        0.0     0.0     0.0        0.0        0.0        0.0        0.0
"Line.MDV201_HN_2_084_B38389"                2        0.0        0.0        0.0        0.0     0.0     0.0
"Line.MDV201_HN_2_875_C63670"                1        0.0        0.0        0.0        0.0     0.0     0.0        0.0        0.0        0.0        0.0
...